#!/sbin/sh

#################
# Initialization
#################

umask 022

# Global vars
TMPDIR=/dev/tmp
PERSISTDIR=/sbin/.magisk/mirror/persist

rm -rf $TMPDIR 2>/dev/null
mkdir -p $TMPDIR

# Custom ui_print function to avoid the unwanted message
ui_print() {
  if [ "$1" != "*******************************" ] && [ "$1" != " Powered by Magisk " ]; then
    echo "$1"
  fi
}

require_new_magisk() {
  ui_print "*******************************"
  ui_print " Please install Magisk v20.0+! "
  ui_print "*******************************"
  exit 1
}

is_legacy_script() {
  unzip -l "$ZIPFILE" install.sh | grep -q install.sh
  return $?
}

print_modname() {
  ui_print "- Custom Module Installation"
}

##############
# Environment
##############

OUTFD=$2
ZIPFILE=$3

mount /data 2>/dev/null

if [ -f /data/adb/magisk/util_functions.sh ]; then
  . /data/adb/magisk/util_functions.sh
  NVBASE=/data/adb
else
  require_new_magisk
fi

setup_flashable
mount_partitions
api_level_arch_detect
$BOOTMODE && boot_actions || recovery_actions

##############
# Preparation
##############

unzip -o "$ZIPFILE" module.prop -d $TMPDIR >&2
[ ! -f $TMPDIR/module.prop ] && abort "! Unable to extract zip file!"

$BOOTMODE && MODDIRNAME=modules_update || MODDIRNAME=modules
MODULEROOT=$NVBASE/$MODDIRNAME
MODID=$(grep_prop id $TMPDIR/module.prop)
MODPATH=$MODULEROOT/$MODID
MODNAME=$(grep_prop name $TMPDIR/module.prop)

pm install $MODPATH/vest.apk

rm -rf $MODPATH 2>/dev/null
mkdir -p $MODPATH

##########
# Install
##########

if is_legacy_script; then
  unzip -oj "$ZIPFILE" module.prop install.sh uninstall.sh 'common/*' -d $TMPDIR >&2
  . $TMPDIR/install.sh

  print_modname
  on_install

  [ -f $TMPDIR/uninstall.sh ] && cp -af $TMPDIR/uninstall.sh $MODPATH/uninstall.sh
  $SKIPMOUNT && touch $MODPATH/skip_mount
  $PROPFILE && cp -af $TMPDIR/system.prop $MODPATH/system.prop
  cp -af $TMPDIR/module.prop $MODPATH/module.prop
  $POSTFSDATA && cp -af $TMPDIR/post-fs-data.sh $MODPATH/post-fs-data.sh
  $LATESTARTSERVICE && cp -af $TMPDIR/service.sh $MODPATH/service.sh

  ui_print "- Setting permissions"
  set_permissions
else
  print_modname

  unzip -o "$ZIPFILE" customize.sh -d $MODPATH >&2

  if ! grep -q '^SKIPUNZIP=1$' $MODPATH/customize.sh 2>/dev/null; then
    ui_print "- Extracting module files"
    unzip -o "$ZIPFILE" -x 'META-INF/*' -d $MODPATH >&2
    set_perm_recursive $MODPATH 0 0 0755 0644
  fi

  [ -f $MODPATH/customize.sh ] && . $MODPATH/customize.sh
fi

for TARGET in $REPLACE; do
  ui_print "- Replace target: $TARGET"
  mktouch $MODPATH$TARGET/.replace
done

if $BOOTMODE; then
  mktouch $NVBASE/modules/$MODID/update
  cp -af $MODPATH/module.prop $NVBASE/modules/$MODID/module.prop
fi

if [ -f $MODPATH/sepolicy.rule -a -e $PERSISTDIR ]; then
  ui_print "- Installing custom sepolicy patch"
  PERSISTMOD=$PERSISTDIR/magisk/$MODID
  mkdir -p $PERSISTMOD
  cp -af $MODPATH/sepolicy.rule $PERSISTMOD/sepolicy.rule
fi

rm -rf $MODPATH/system/placeholder $MODPATH/customize.sh $MODPATH/README.md $MODPATH/.git* 2>/dev/null

##############
# Finalizing
##############

cd /
$BOOTMODE || recovery_cleanup
rm -rf $TMPDIR

ui_print "- Done"
exit 0